Version 4
SHEET 1 1052 1804
WIRE 48 -176 48 -224
WIRE -736 -160 -848 -160
WIRE -1248 -64 -1248 -96
WIRE -1248 -64 -1360 -64
WIRE -1360 -48 -1360 -64
WIRE -1248 -32 -1248 -64
WIRE 48 -32 48 -112
WIRE 48 -32 -128 -32
WIRE -352 -16 -400 -16
WIRE -320 -16 -352 -16
WIRE -192 -16 -240 -16
WIRE -16 0 -128 0
WIRE 224 0 -16 0
WIRE 368 0 224 0
WIRE 512 0 432 0
WIRE 32 464 -240 464
WIRE 352 464 96 464
WIRE 352 592 352 544
FLAG -128 32 +VCC
FLAG -128 -64 -VCC
FLAG -928 -160 0
FLAG 48 -224 0
FLAG -1024 432 0
FLAG -1024 352 CLK
FLAG -192 16 CLK
FLAG -16 0 Vout
FLAG -1248 -176 +VCC
FLAG -1248 48 -VCC
FLAG -1360 -48 0
FLAG -736 -160 V_in
FLAG 512 80 0
FLAG 368 32 CLK
FLAG 400 -32 +VCC
FLAG 400 64 -VCC
FLAG 224 80 0
FLAG -400 -16 +VCC
FLAG -352 64 0
FLAG 352 592 0
FLAG 32 496 CLK
FLAG 64 432 +VCC
FLAG 64 528 -VCC
FLAG -192 -48 V_in
FLAG -240 464 V_in
SYMBOL voltage -832 -160 R90
WINDOW 123 0 0 Left 0
WINDOW 39 0 0 Left 0
SYMATTR InstName Vin
SYMATTR Value SINE(0 5 10k 0 0 0)
SYMBOL cap 64 -176 M0
SYMATTR InstName C1
SYMATTR Value {Ch}
SYMBOL voltage -1024 336 R0
WINDOW 123 0 0 Left 0
WINDOW 39 0 0 Left 0
SYMATTR InstName V2
SYMATTR Value PULSE(-0.5V 15V 0 0 0 1.6us 3.2us)
SYMBOL Misc\\battery -1248 -192 R0
WINDOW 123 0 0 Left 0
WINDOW 39 0 0 Left 0
SYMATTR InstName V1
SYMATTR Value 15
SYMBOL Misc\\battery -1248 -48 R0
WINDOW 123 0 0 Left 0
WINDOW 39 0 0 Left 0
SYMATTR InstName V3
SYMATTR Value 15
SYMBOL AutoGenerated\\LF398H -160 -16 R0
SYMATTR InstName U2
SYMBOL res 496 -16 R0
SYMATTR InstName R2
SYMATTR Value 100k
SYMBOL res 208 -16 R0
SYMATTR InstName R3
SYMATTR Value 10k
SYMBOL res -368 -32 R0
SYMATTR InstName R4
SYMATTR Value 10k
SYMBOL res -224 -32 R90
WINDOW 0 0 56 VBottom 2
WINDOW 3 32 56 VTop 2
SYMATTR InstName R5
SYMATTR Value 47k
SYMBOL res 336 448 R0
SYMATTR InstName R1
SYMATTR Value 100k
SYMBOL CD4000\\CD4066 64 480 R0
SYMATTR InstName U3
SYMBOL CD4000\\CD4066 400 16 R0
SYMATTR InstName U1
TEXT -1064 808 Left 2 !.tran 0 300u 0 10n startup
TEXT -1072 728 Left 2 ;.step param Ch list 100p 220p 470p 820p 1n
TEXT -1064 768 Left 2 !.param Ch=220p
TEXT -1064 688 Left 2 !.lib CD4066.sub
TEXT 80 -336 Center 6 ;Muestreo Instantáneo
TEXT -232 240 Left 6 ;Muestreo Natural
TEXT -1376 -336 Left 6 ;Source
TEXT -928 -336 Left 6 ;Signal
TEXT -960 240 Left 6 ;Clock
TEXT -1112 600 Left 6 ;CMD and LIB
RECTANGLE Normal 624 160 -512 -288 1
RECTANGLE Normal 624 720 -512 288 1
RECTANGLE Normal -656 160 -992 -288 1
RECTANGLE Normal -1088 160 -1408 -288 1
RECTANGLE Normal -608 512 -1120 288 1
RECTANGLE Normal -624 848 -1120 640 1
