Version 4
SHEET 1 1052 1804
WIRE 48 -176 48 -224
WIRE 624 -112 272 -112
WIRE 48 -32 48 -112
WIRE 48 -32 -128 -32
WIRE 624 -32 624 -112
WIRE 704 -32 624 -32
WIRE -352 -16 -400 -16
WIRE -320 -16 -352 -16
WIRE -192 -16 -240 -16
WIRE 272 -16 272 -112
WIRE 384 -16 272 -16
WIRE -16 0 -128 0
WIRE 96 0 -16 0
WIRE 96 16 96 0
WIRE 320 16 96 16
WIRE 384 16 320 16
WIRE 272 192 -80 192
WIRE 272 272 272 192
WIRE 304 272 272 272
WIRE 352 272 304 272
WIRE -80 288 -80 192
WIRE 32 288 -80 288
WIRE -496 304 -608 304
WIRE -16 320 -32 320
WIRE 32 320 -16 320
WIRE -1008 512 -1008 480
WIRE -1008 512 -1120 512
WIRE -1120 528 -1120 512
WIRE -1008 544 -1008 512
FLAG -128 32 +VCC
FLAG -128 -64 -VCC
FLAG -688 304 0
FLAG 48 -224 0
FLAG -656 832 0
FLAG -656 752 CLK
FLAG -192 16 CLK
FLAG -16 0 Vout
FLAG -1008 400 +VCC
FLAG -1008 624 -VCC
FLAG -1120 528 0
FLAG -496 304 Vin
FLAG 704 48 0
FLAG 480 -32 CLK
FLAG 480 0 +VCC
FLAG 480 32 -VCC
FLAG 320 96 0
FLAG -400 -16 +VCC
FLAG -352 64 0
FLAG 352 352 0
FLAG 128 272 CLK
FLAG 128 304 +VCC
FLAG 128 336 -VCC
FLAG -32 320 Vin
FLAG -192 -48 Vin
FLAG -16 400 0
FLAG 304 336 0
SYMBOL voltage -592 304 R90
WINDOW 123 0 0 Left 0
WINDOW 39 0 0 Left 0
SYMATTR InstName Vin
SYMATTR Value SINE(0 5 10k 0 0 0)
SYMBOL cap 64 -176 M0
SYMATTR InstName C1
SYMATTR Value {Ch}
SYMBOL voltage -656 736 R0
WINDOW 123 0 0 Left 0
WINDOW 39 0 0 Left 0
SYMATTR InstName V2
SYMATTR Value PULSE(0V 15V 0 0 0 16u 32u)
SYMBOL Misc\\battery -1008 384 R0
WINDOW 123 0 0 Left 0
WINDOW 39 0 0 Left 0
SYMATTR InstName V1
SYMATTR Value 15
SYMBOL Misc\\battery -1008 528 R0
WINDOW 123 0 0 Left 0
WINDOW 39 0 0 Left 0
SYMATTR InstName V3
SYMATTR Value 15
SYMBOL AutoGenerated\\LF398H -160 -16 R0
SYMATTR InstName U2
SYMBOL AutoGenerated\\CD4066B 432 0 R0
SYMATTR InstName U1
SYMBOL res 688 -48 R0
SYMATTR InstName R2
SYMATTR Value 4.7k
SYMBOL res 304 0 R0
SYMATTR InstName R3
SYMATTR Value 10k
SYMBOL res -368 -32 R0
SYMATTR InstName R4
SYMATTR Value 10k
SYMBOL res -224 -32 R90
WINDOW 0 0 56 VBottom 2
WINDOW 3 32 56 VTop 2
SYMATTR InstName R5
SYMATTR Value 47k
SYMBOL AutoGenerated\\CD4066B 80 304 R0
SYMATTR InstName U3
SYMBOL res 336 256 R0
SYMATTR InstName R1
SYMATTR Value 100k
SYMBOL res -32 304 R0
SYMATTR InstName R6
SYMATTR Value 10k
SYMBOL cap 288 272 R0
SYMATTR InstName C2
SYMATTR Value 50p
TEXT -124 714 Left 2 !.tran 0 300u 0 10n startup
TEXT -136 632 Left 2 ;.step param Ch list 100p 220p 470p 820p 1n
TEXT -128 672 Left 2 !.param Ch=220p
