Version 4
SHEET 1 3228 932
WIRE 784 -672 640 -672
WIRE 640 -576 640 -672
WIRE 688 -576 640 -576
WIRE 784 -560 784 -672
WIRE 784 -560 752 -560
WIRE 576 -544 544 -544
WIRE 688 -544 576 -544
WIRE 784 -544 784 -560
WIRE 816 -544 784 -544
WIRE 576 -512 576 -544
WIRE 576 -400 576 -432
WIRE 160 -112 -48 -112
WIRE 464 -112 224 -112
WIRE 1312 -112 1104 -112
WIRE 1616 -112 1376 -112
WIRE 2464 -112 2256 -112
WIRE 2768 -112 2528 -112
WIRE 3136 -32 2992 -32
WIRE 2992 64 2992 -32
WIRE 3040 64 2992 64
WIRE 288 80 272 80
WIRE 1440 80 1424 80
WIRE 2592 80 2576 80
WIRE 3136 80 3136 -32
WIRE 3136 80 3104 80
WIRE -240 96 -272 96
WIRE -48 96 -48 -112
WIRE -48 96 -160 96
WIRE 16 96 -48 96
WIRE 176 96 96 96
WIRE 464 96 464 -112
WIRE 464 96 336 96
WIRE 912 96 464 96
WIRE 1104 96 1104 -112
WIRE 1104 96 992 96
WIRE 1168 96 1104 96
WIRE 1328 96 1248 96
WIRE 1616 96 1616 -112
WIRE 1616 96 1488 96
WIRE 2064 96 1616 96
WIRE 2256 96 2256 -112
WIRE 2256 96 2144 96
WIRE 2320 96 2256 96
WIRE 2480 96 2400 96
WIRE 2768 96 2768 -112
WIRE 2768 96 2640 96
WIRE 2880 96 2768 96
WIRE 2992 96 2960 96
WIRE 3040 96 2992 96
WIRE 3136 96 3136 80
WIRE 3184 96 3136 96
WIRE 176 112 176 96
WIRE 272 112 176 112
WIRE 1328 112 1328 96
WIRE 1424 112 1328 112
WIRE 2480 112 2480 96
WIRE 2576 112 2480 112
WIRE 2992 128 2992 96
WIRE 464 144 464 96
WIRE 1616 144 1616 96
WIRE 2768 144 2768 96
WIRE 176 208 176 112
WIRE 1328 208 1328 112
WIRE 2480 208 2480 112
WIRE 288 240 288 80
WIRE 336 240 288 240
WIRE 464 240 464 224
WIRE 464 240 336 240
WIRE 1440 240 1440 80
WIRE 1488 240 1440 240
WIRE 1616 240 1616 224
WIRE 1616 240 1488 240
WIRE 2592 240 2592 80
WIRE 2640 240 2592 240
WIRE 2768 240 2768 224
WIRE 2768 240 2640 240
WIRE 2992 240 2992 208
WIRE 176 336 176 272
WIRE 336 336 336 320
WIRE 1328 336 1328 272
WIRE 1488 336 1488 320
WIRE 2480 336 2480 272
WIRE 2640 336 2640 320
WIRE 1104 384 560 384
WIRE 1536 384 1184 384
WIRE 560 464 560 384
WIRE 688 464 560 464
WIRE 832 464 752 464
WIRE 560 544 560 464
WIRE 688 544 560 544
WIRE 832 544 832 464
WIRE 832 544 768 544
WIRE 1040 592 1008 592
WIRE 1152 592 1104 592
WIRE 1376 624 1328 624
WIRE 1536 624 1536 384
WIRE 1536 624 1456 624
WIRE 368 640 304 640
WIRE 560 640 560 544
WIRE 560 640 448 640
WIRE 1792 640 1648 640
WIRE 560 656 560 640
WIRE 688 656 560 656
WIRE 832 672 832 544
WIRE 832 672 752 672
WIRE 864 672 832 672
WIRE 1008 672 1008 592
WIRE 1008 672 944 672
WIRE 688 688 656 688
WIRE 1008 736 1008 672
WIRE 1040 736 1008 736
WIRE 1648 736 1648 640
WIRE 1696 736 1648 736
WIRE 1152 752 1152 592
WIRE 1152 752 1104 752
WIRE 1216 752 1152 752
WIRE 1328 752 1328 624
WIRE 1328 752 1296 752
WIRE 1376 752 1328 752
WIRE 1792 752 1792 640
WIRE 1792 752 1760 752
WIRE 656 768 656 688
WIRE 1040 768 976 768
WIRE 1536 768 1536 624
WIRE 1536 768 1440 768
WIRE 1648 768 1616 768
WIRE 1696 768 1648 768
WIRE 1792 768 1792 752
WIRE 1840 768 1792 768
WIRE 1376 784 1360 784
WIRE 1648 800 1648 768
WIRE 976 816 976 768
WIRE 1360 848 1360 784
WIRE 1648 912 1648 880
FLAG -368 288 0
FLAG -560 144 0
FLAG -560 208 0
FLAG -560 64 vcc+
FLAG -560 288 vcc-
FLAG -368 208 vin
FLAG 176 336 0
FLAG 336 336 0
FLAG 304 64 vcc+
FLAG 304 128 vcc-
FLAG 1328 336 0
FLAG 1488 336 0
FLAG 2480 336 0
FLAG 2640 336 0
FLAG 720 640 vcc+
FLAG 720 704 vcc-
FLAG 1072 720 vcc+
FLAG 1072 784 vcc-
FLAG 1408 736 vcc+
FLAG 1408 800 vcc-
FLAG -272 96 vin
FLAG 3184 96 v3
FLAG 656 768 0
FLAG 976 816 0
FLAG 1360 848 0
FLAG 720 -592 vcc+
FLAG 720 -528 vcc-
FLAG 3072 48 vcc+
FLAG 3072 112 vcc-
FLAG 576 -400 0
FLAG 2992 240 0
FLAG 1456 64 vcc+
FLAG 1456 128 vcc-
FLAG 2608 64 vcc+
FLAG 2608 128 vcc-
FLAG 304 640 v3
FLAG 1728 720 vcc+
FLAG 1728 784 vcc-
FLAG 1648 912 0
FLAG 1840 768 v0
SYMBOL voltage -368 192 R0
WINDOW 123 24 124 Left 2
WINDOW 39 0 0 Left 2
SYMATTR Value2 AC 1
SYMATTR InstName V1
SYMATTR Value ""
SYMBOL voltage -560 48 R0
WINDOW 123 0 0 Left 0
WINDOW 39 0 0 Left 0
SYMATTR InstName V2
SYMATTR Value 12
SYMBOL voltage -560 192 R0
WINDOW 123 0 0 Left 0
WINDOW 39 0 0 Left 0
SYMATTR InstName V3
SYMATTR Value 12
SYMBOL res -144 80 R90
WINDOW 0 0 56 VBottom 2
WINDOW 3 32 56 VTop 2
SYMATTR InstName R1
SYMATTR Value {mc{R1,tolR}}
SYMBOL res 112 80 R90
WINDOW 0 0 56 VBottom 2
WINDOW 3 32 56 VTop 2
SYMATTR InstName R2
SYMATTR Value {mc{R1,tolR}}
SYMBOL Opamps\\opamp2 304 32 R0
SYMATTR InstName U1
SYMATTR Value TL082
SYMBOL cap 224 -128 R90
WINDOW 0 0 32 VBottom 2
WINDOW 3 32 32 VTop 2
SYMATTR InstName C1
SYMATTR Value {mc{C,tolC}}
SYMBOL cap 160 208 R0
WINDOW 3 -165 34 Left 2
SYMATTR InstName C2
SYMATTR Value {mc{C,tolC}}
SYMBOL res 448 128 R0
SYMATTR InstName R3
SYMATTR Value {mc{Ra1,tolR}}
SYMBOL res 352 336 R180
WINDOW 0 36 76 Left 2
WINDOW 3 36 40 Left 2
SYMATTR InstName R4
SYMATTR Value {mc{Rb,tolR}}
SYMBOL res 1008 80 R90
WINDOW 0 0 56 VBottom 2
WINDOW 3 32 56 VTop 2
SYMATTR InstName R5
SYMATTR Value {mc{R2,tolR}}
SYMBOL res 1264 80 R90
WINDOW 0 0 56 VBottom 2
WINDOW 3 32 56 VTop 2
SYMATTR InstName R6
SYMATTR Value {mc{R2,tolR}}
SYMBOL cap 1376 -128 R90
WINDOW 0 0 32 VBottom 2
WINDOW 3 32 32 VTop 2
SYMATTR InstName C3
SYMATTR Value {mc{C,tolC}}
SYMBOL cap 1312 208 R0
WINDOW 3 -157 32 Left 2
SYMATTR InstName C4
SYMATTR Value {mc{C,tolC}}
SYMBOL res 1600 128 R0
SYMATTR InstName R7
SYMATTR Value {mc{Ra2,tolR}}
SYMBOL res 1504 336 R180
WINDOW 0 36 76 Left 2
WINDOW 3 36 40 Left 2
SYMATTR InstName R8
SYMATTR Value {mc{Rb,tolR}}
SYMBOL res 2160 80 R90
WINDOW 0 0 56 VBottom 2
WINDOW 3 32 56 VTop 2
SYMATTR InstName R9
SYMATTR Value {mc{R3,tolR}}
SYMBOL res 2416 80 R90
WINDOW 0 0 56 VBottom 2
WINDOW 3 32 56 VTop 2
SYMATTR InstName R10
SYMATTR Value {mc{R3,tolR}}
SYMBOL cap 2528 -128 R90
WINDOW 0 0 32 VBottom 2
WINDOW 3 32 32 VTop 2
SYMATTR InstName C5
SYMATTR Value {mc{C,tolC}}
SYMBOL cap 2464 208 R0
WINDOW 3 -167 32 Left 2
SYMATTR InstName C6
SYMATTR Value {mc{C,tolC}}
SYMBOL res 2752 128 R0
SYMATTR InstName R11
SYMATTR Value {mc{Ra3,tolR}}
SYMBOL res 2656 336 R180
WINDOW 0 36 76 Left 2
WINDOW 3 36 40 Left 2
SYMATTR InstName R12
SYMATTR Value {mc{Rb,tolR}}
SYMBOL Opamps\\opamp2 720 608 R0
SYMATTR InstName U5
SYMATTR Value TL082
SYMBOL Opamps\\opamp2 1072 688 R0
SYMATTR InstName U6
SYMATTR Value TL082
SYMBOL Opamps\\opamp2 1408 704 R0
SYMATTR InstName U7
SYMATTR Value TL082
SYMBOL res 464 624 R90
WINDOW 0 0 56 VBottom 2
WINDOW 3 32 56 VTop 2
SYMATTR InstName R13
SYMATTR Value {mc{Rt3,tolR}}
SYMBOL cap 752 448 R90
WINDOW 0 0 32 VBottom 2
WINDOW 3 -30 -70 VTop 2
SYMATTR InstName C7
SYMATTR Value {mc{C,tolC}}
SYMBOL cap 1104 576 R90
WINDOW 0 0 32 VBottom 2
WINDOW 3 32 32 VTop 2
SYMATTR InstName C8
SYMATTR Value {mc{C,tolC}}
SYMBOL res 784 528 R90
WINDOW 0 0 56 VBottom 2
WINDOW 3 32 56 VTop 2
SYMATTR InstName R14
SYMATTR Value {mc{Rt1,tolR}}
SYMBOL res 960 656 R90
WINDOW 0 0 56 VBottom 2
WINDOW 3 32 56 VTop 2
SYMATTR InstName R15
SYMATTR Value {mc{Rt2,tolR}}
SYMBOL res 1312 736 R90
WINDOW 0 0 56 VBottom 2
WINDOW 3 32 56 VTop 2
SYMATTR InstName R16
SYMATTR Value {mc{Rb,tolR}}
SYMBOL res 1472 608 R90
WINDOW 0 0 56 VBottom 2
WINDOW 3 32 56 VTop 2
SYMATTR InstName R17
SYMATTR Value {mc{Rb,tolR}}
SYMBOL res 1200 368 R90
WINDOW 0 0 56 VBottom 2
WINDOW 3 32 56 VTop 2
SYMATTR InstName R18
SYMATTR Value {mc{Rt2,tolR}}
SYMBOL Opamps\\opamp2 720 -624 R0
SYMATTR InstName U3
SYMATTR Value TL082
SYMBOL Opamps\\opamp2 3072 16 R0
SYMATTR InstName U9
SYMATTR Value TL082
SYMBOL res 560 -528 R0
SYMATTR InstName R19
SYMATTR Value 1k
SYMBOL res 560 -560 R90
WINDOW 0 0 56 VBottom 2
WINDOW 3 32 56 VTop 2
SYMATTR InstName R20
SYMATTR Value 1k
SYMBOL res 2976 112 R0
SYMATTR InstName R23
SYMATTR Value 1k
SYMBOL res 2976 80 R90
WINDOW 0 0 56 VBottom 2
WINDOW 3 32 56 VTop 2
SYMATTR InstName R24
SYMATTR Value 1k
SYMBOL Opamps\\opamp2 1456 32 R0
SYMATTR InstName U2
SYMATTR Value TL082
SYMBOL Opamps\\opamp2 2608 32 R0
SYMATTR InstName U4
SYMATTR Value TL082
SYMBOL Opamps\\opamp2 1728 688 R0
SYMATTR InstName U8
SYMATTR Value TL082
SYMBOL res 1632 784 R0
SYMATTR InstName R21
SYMATTR Value 10k
SYMBOL res 1632 752 R90
WINDOW 0 0 56 VBottom 2
WINDOW 3 32 56 VTop 2
SYMATTR InstName R22
SYMATTR Value 1k
TEXT -568 496 Left 2 !.ac dec 1000 1k 1meg
TEXT -560 536 Left 2 !.inc "TL082.301"
TEXT 2232 496 Left 2 !.param Rb = 10k
TEXT 2136 544 Left 2 !.param R1 = 3.56k
TEXT 2400 536 Left 2 !.param Ra1 = 1.82k
TEXT 2136 584 Left 2 !.param R2 = 2.47k
TEXT 2400 576 Left 2 !.param Ra2 = 9.58k
TEXT 2136 624 Left 2 !.param R3 = 1.84k
TEXT 2400 616 Left 2 !.param Ra3 = 14.97k
TEXT 2144 736 Left 2 !.param Rt1 = 10.41k
TEXT 2248 688 Left 2 !.param C = 1n
TEXT 2408 736 Left 2 !.param Rt3 = 5.56k
TEXT -240 496 Left 2 !.param tolR = 0.05
TEXT -232 536 Left 2 !.param tolC = 0.2
TEXT -232 592 Left 2 ;.step param run 1 100 1
TEXT 2144 776 Left 2 !.param Rt2 = 1.59k
