Version 4
SHEET 1 1012 1332
WIRE 416 -128 416 -176
WIRE -368 -112 -480 -112
WIRE -880 -16 -880 -48
WIRE -880 -16 -992 -16
WIRE -992 0 -992 -16
WIRE -880 16 -880 -16
WIRE 416 16 416 -64
WIRE 416 16 240 16
WIRE 16 32 -32 32
WIRE 48 32 16 32
WIRE 176 32 128 32
WIRE 352 48 240 48
WIRE 592 48 352 48
WIRE 736 48 592 48
WIRE 880 48 800 48
WIRE 416 1072 144 1072
WIRE 720 1072 480 1072
WIRE 736 1072 720 1072
WIRE 736 1200 736 1152
FLAG 240 80 +VCC
FLAG 240 -16 -VCC
FLAG -560 -112 0
FLAG 416 -176 0
FLAG -656 480 0
FLAG -656 400 CLK
FLAG 176 64 CLK
FLAG 352 48 Vout
FLAG -880 -128 +VCC
FLAG -880 96 -VCC
FLAG -992 0 0
FLAG -368 -112 V_in
FLAG 880 128 0
FLAG 736 80 CLK
FLAG 768 16 +VCC
FLAG 768 112 -VCC
FLAG 592 128 0
FLAG -32 32 +VCC
FLAG 16 112 0
FLAG 176 0 vo
FLAG 736 1200 0
FLAG 416 1104 CLK
FLAG 448 1040 +VCC
FLAG 448 1136 -VCC
FLAG 144 1072 vo
FLAG 720 1072 Vsampl
FLAG 880 48 Vsampl
SYMBOL voltage -464 -112 R90
WINDOW 123 0 0 Left 0
WINDOW 39 0 0 Left 0
SYMATTR InstName Vin1
SYMATTR Value SINE(0 5 10k 0 0 0)
SYMBOL cap 432 -128 M0
SYMATTR InstName C1
SYMATTR Value {Ch}
SYMBOL voltage -656 384 R0
WINDOW 123 0 0 Left 0
WINDOW 39 0 0 Left 0
SYMATTR InstName V1
SYMATTR Value PULSE(-0.5V 10V 0 0 0 1.6us 3.2us)
SYMBOL Misc\\battery -880 -144 R0
WINDOW 123 0 0 Left 0
WINDOW 39 0 0 Left 0
SYMATTR InstName V2
SYMATTR Value 10
SYMBOL Misc\\battery -880 0 R0
WINDOW 123 0 0 Left 0
WINDOW 39 0 0 Left 0
SYMATTR InstName V3
SYMATTR Value 10
SYMBOL AutoGenerated\\LF398H 208 32 R0
SYMATTR InstName U1
SYMBOL res 864 32 R0
SYMATTR InstName R1
SYMATTR Value 10Meg
SYMBOL res 576 32 R0
SYMATTR InstName R2
SYMATTR Value 10k
SYMBOL res 0 16 R0
SYMATTR InstName R3
SYMATTR Value 10k
SYMBOL res 144 16 R90
WINDOW 0 0 56 VBottom 2
WINDOW 3 32 56 VTop 2
SYMATTR InstName R4
SYMATTR Value 47k
SYMBOL CD4066 768 64 R0
SYMATTR InstName U3
SYMBOL res 720 1056 R0
SYMATTR InstName R6
SYMATTR Value 10Meg
SYMBOL CD4066 448 1088 R0
SYMATTR InstName U4
TEXT -696 856 Left 2 !.tran 0 300u 0 10n
TEXT -704 776 Left 2 ;.step param Ch list 100p 220p 470p 820p 1n
TEXT -696 816 Left 2 !.param Ch=3n
TEXT -696 736 Left 2 !.lib CD4066.sub
TEXT 448 -288 Center 6 ;Muestreo Instantáneo
TEXT -1008 -288 Left 6 ;Source
TEXT -560 -288 Left 6 ;Signal
TEXT -592 288 Left 6 ;Clock
TEXT -744 648 Left 6 ;CMD and LIB
TEXT 152 848 Left 6 ;Muestreo Natural
RECTANGLE Normal 992 208 -144 -240 1
RECTANGLE Normal -288 208 -624 -240 1
RECTANGLE Normal -720 208 -1040 -240 1
RECTANGLE Normal -240 560 -752 336 1
RECTANGLE Normal -256 896 -752 688 1
RECTANGLE Normal 1008 1328 -128 896 1
