Version 4
SHEET 1 1060 680
WIRE 464 -640 192 -640
WIRE 784 -640 528 -640
WIRE 848 -640 784 -640
WIRE 784 -512 784 -560
WIRE 480 80 480 32
WIRE 480 224 480 144
WIRE 480 224 304 224
WIRE 80 240 32 240
WIRE 112 240 80 240
WIRE 240 240 192 240
WIRE 416 256 304 256
WIRE 656 256 416 256
WIRE 800 256 656 256
WIRE 944 256 864 256
FLAG 304 288 +VCC
FLAG 304 192 -VCC
FLAG 480 32 0
FLAG 240 272 CLK
FLAG 416 256 Vout
FLAG 944 336 0
FLAG 800 288 CLK
FLAG 832 224 +VCC
FLAG 832 320 -VCC
FLAG 656 336 0
FLAG 32 240 +VCC
FLAG 80 320 0
FLAG 240 208 V_in
FLAG 784 -512 0
FLAG 464 -608 CLK
FLAG 496 -672 +VCC
FLAG 496 -576 -VCC
FLAG 192 -640 vo
FLAG 848 -640 Vsampl
SYMBOL cap 496 80 M0
SYMATTR InstName C1
SYMATTR Value {Ch}
SYMBOL AutoGenerated\\LF398H 272 240 R0
SYMATTR InstName U1
SYMBOL res 928 240 R0
SYMATTR InstName R1
SYMATTR Value 100k
SYMBOL res 640 240 R0
SYMATTR InstName R2
SYMATTR Value 10k
SYMBOL res 64 224 R0
SYMATTR InstName R3
SYMATTR Value 10k
SYMBOL res 208 224 R90
WINDOW 0 0 56 VBottom 2
WINDOW 3 32 56 VTop 2
SYMATTR InstName R4
SYMATTR Value 47k
SYMBOL CD4066 832 272 R0
SYMATTR InstName U2
SYMBOL res 768 -656 R0
SYMATTR InstName R5
SYMATTR Value 10Meg
SYMBOL CD4066 496 -624 R0
SYMATTR InstName U3
TEXT 512 -80 Center 6 ;Muestreo Instantáneo
TEXT 200 -864 Left 6 ;Muestreo Natural
RECTANGLE Normal 1056 416 -80 -32 1
RECTANGLE Normal 1056 -384 -80 -816 1
